L6/1726526/Trafos.dss
! ==========================================================
! TRANSFORMADORES DE DISTRIBUICAO — gerados de UNTRMT/EQTRMT
! Secundario 1F/2F: 3 enrolamentos com derivacao central
! Neutro no no 4, aterrado em _ATERRAMENTO.dss
! Kv de BT conforme TEN_LIN_SE da BDGD
! ==========================================================
New Transformer.325725082_326829242 phases=3 windings=2 Xhl=4.900
~ wdg=1 bus=node_443161279.1.2.3 conn=delta Kv=13.8 Kva=300.0 %R=0.495
~ wdg=2 bus=node_515135228.1.2.3.4 conn=wye Kv=0.2200 Kva=300.0 %R=0.495
New Transformer.1072830154_1072830155 phases=3 windings=2 Xhl=4.900
~ wdg=1 bus=node_426039773.1.2.3 conn=delta Kv=13.8 Kva=300.0 %R=0.495
~ wdg=2 bus=node_412179266.1.2.3.4 conn=wye Kv=0.2200 Kva=300.0 %R=0.495
New Transformer.1066659850_1066659860 phases=3 windings=2 Xhl=4.900
~ wdg=1 bus=node_1333579290.1.2.3 conn=delta Kv=13.8 Kva=300.0 %R=0.495
~ wdg=2 bus=node_1333579354.1.2.3.4 conn=wye Kv=0.2200 Kva=300.0 %R=0.495
New Transformer.326239865_2036786144 phases=3 windings=2 Xhl=4.900
~ wdg=1 bus=node_439498258.1.2.3 conn=delta Kv=13.8 Kva=300.0 %R=0.495
~ wdg=2 bus=node_412839824.1.2.3.4 conn=wye Kv=0.2200 Kva=300.0 %R=0.495
New Transformer.326240790_326874568 phases=3 windings=2 Xhl=4.900
~ wdg=1 bus=node_425708930.1.2.3 conn=delta Kv=13.8 Kva=300.0 %R=0.495
~ wdg=2 bus=node_515287658.1.2.3.4 conn=wye Kv=0.2200 Kva=300.0 %R=0.495
New Transformer.836780369_1098066124 phases=3 windings=2 Xhl=4.900
~ wdg=1 bus=node_443026662.1.2.3 conn=delta Kv=13.8 Kva=300.0 %R=0.495
~ wdg=2 bus=node_1106005588.1.2.3.4 conn=wye Kv=0.2200 Kva=300.0 %R=0.495
New Transformer.326629389_1554849153 phases=3 windings=2 Xhl=4.900
~ wdg=1 bus=node_434123279.1.2.3 conn=delta Kv=13.8 Kva=300.0 %R=0.495
~ wdg=2 bus=node_412101396.1.2.3.4 conn=wye Kv=0.2200 Kva=300.0 %R=0.495
New Transformer.326631613_1444110847 phases=3 windings=2 Xhl=4.900
~ wdg=1 bus=node_426500495.1.2.3 conn=delta Kv=13.8 Kva=300.0 %R=0.495
~ wdg=2 bus=node_412099635.1.2.3.4 conn=wye Kv=0.2200 Kva=300.0 %R=0.495
New Transformer.326630002_326831329 phases=3 windings=2 Xhl=4.900
~ wdg=1 bus=node_425547868.1.2.3 conn=delta Kv=13.8 Kva=300.0 %R=0.495
~ wdg=2 bus=node_513863151.1.2.3.4 conn=wye Kv=0.2200 Kva=300.0 %R=0.495
New Transformer.2609902284_2609902283 phases=3 windings=2 Xhl=4.900
~ wdg=1 bus=node_2763460746.1.2.3 conn=delta Kv=13.8 Kva=300.0 %R=0.495
~ wdg=2 bus=node_2763460656.1.2.3.4 conn=wye Kv=0.2200 Kva=300.0 %R=0.495
New Transformer.2667836617_2667836616 phases=3 windings=2 Xhl=4.900
~ wdg=1 bus=node_2836702417.1.2.3 conn=delta Kv=13.8 Kva=300.0 %R=0.495
~ wdg=2 bus=node_2836702306.1.2.3.4 conn=wye Kv=0.2200 Kva=300.0 %R=0.495
New Transformer.2305831043_2305831042 phases=3 windings=2 Xhl=4.900
~ wdg=1 bus=node_2578808990.1.2.3 conn=delta Kv=13.8 Kva=300.0 %R=0.495
~ wdg=2 bus=node_2578808951.1.2.3.4 conn=wye Kv=0.2200 Kva=300.0 %R=0.495
New Transformer.2656092100_2656092101 phases=3 windings=2 Xhl=3.840
~ wdg=1 bus=node_2823329442.1.2.3 conn=delta Kv=13.8 Kva=150.0 %R=0.565
~ wdg=2 bus=node_2823329451.1.2.3.4 conn=wye Kv=0.2200 Kva=150.0 %R=0.565
New Transformer.2656092242_2656092243 phases=3 windings=2 Xhl=3.840
~ wdg=1 bus=node_2823329588.1.2.3 conn=delta Kv=13.8 Kva=150.0 %R=0.565
~ wdg=2 bus=node_2823329597.1.2.3.4 conn=wye Kv=0.2200 Kva=150.0 %R=0.565
New Transformer.2656091563_2656091564 phases=3 windings=2 Xhl=3.840
~ wdg=1 bus=node_2823328500.1.2.3 conn=delta Kv=13.8 Kva=150.0 %R=0.565
~ wdg=2 bus=node_2823328509.1.2.3.4 conn=wye Kv=0.2200 Kva=150.0 %R=0.565
New Transformer.2656091918_2656091919 phases=3 windings=2 Xhl=3.840
~ wdg=1 bus=node_2823329113.1.2.3 conn=delta Kv=13.8 Kva=150.0 %R=0.565
~ wdg=2 bus=node_2823329122.1.2.3.4 conn=wye Kv=0.2200 Kva=150.0 %R=0.565
New Transformer.2658892121_2658892122 phases=3 windings=2 Xhl=3.840
~ wdg=1 bus=node_2823329806.1.2.3 conn=delta Kv=13.8 Kva=150.0 %R=0.565
~ wdg=2 bus=node_2823329815.1.2.3.4 conn=wye Kv=0.2200 Kva=150.0 %R=0.565
New Transformer.2656091380_2656091381 phases=3 windings=2 Xhl=3.840
~ wdg=1 bus=node_2823328152.1.2.3 conn=delta Kv=13.8 Kva=150.0 %R=0.565
~ wdg=2 bus=node_2823328161.1.2.3.4 conn=wye Kv=0.2200 Kva=150.0 %R=0.565
New Transformer.2372460852_2372460851 phases=3 windings=2 Xhl=3.840
~ wdg=1 bus=node_434121671.1.2.3 conn=delta Kv=13.8 Kva=150.0 %R=0.565
~ wdg=2 bus=node_460075148.1.2.3.4 conn=wye Kv=0.2200 Kva=150.0 %R=0.565
New Transformer.2535371290_2535371289 phases=3 windings=2 Xhl=3.840
~ wdg=1 bus=node_2839210273.1.2.3 conn=delta Kv=13.8 Kva=150.0 %R=0.565
~ wdg=2 bus=node_2839210245.1.2.3.4 conn=wye Kv=0.2200 Kva=150.0 %R=0.565
New Transformer.2100152802_2100152801 phases=3 windings=2 Xhl=3.840
~ wdg=1 bus=node_2413777665.1.2.3 conn=delta Kv=13.8 Kva=150.0 %R=0.565
~ wdg=2 bus=node_459006919.1.2.3.4 conn=wye Kv=0.2200 Kva=150.0 %R=0.565
New Transformer.2542284797_2542284796 phases=3 windings=2 Xhl=3.840
~ wdg=1 bus=node_2795699883.1.2.3 conn=delta Kv=13.8 Kva=150.0 %R=0.565
~ wdg=2 bus=node_2795699830.1.2.3.4 conn=wye Kv=0.2200 Kva=150.0 %R=0.565
New Transformer.2687262719_2687262718 phases=3 windings=2 Xhl=3.840
~ wdg=1 bus=node_2863003411.1.2.3 conn=delta Kv=13.8 Kva=150.0 %R=0.565
~ wdg=2 bus=node_2863003389.1.2.3.4 conn=wye Kv=0.2200 Kva=150.0 %R=0.565
New Transformer.325722955_326831642 phases=3 windings=2 Xhl=3.840
~ wdg=1 bus=node_443293532.1.2.3 conn=delta Kv=13.8 Kva=150.0 %R=0.565
~ wdg=2 bus=node_412100175.1.2.3.4 conn=wye Kv=0.2200 Kva=150.0 %R=0.565
New Transformer.326627809_326901238 phases=3 windings=2 Xhl=3.840
~ wdg=1 bus=node_443293863.1.2.3 conn=delta Kv=13.8 Kva=150.0 %R=0.565
~ wdg=2 bus=node_515616797.1.2.3.4 conn=wye Kv=0.2200 Kva=150.0 %R=0.565
New Transformer.326627505_326831420 phases=3 windings=2 Xhl=3.840
~ wdg=1 bus=node_443416127.1.2.3 conn=delta Kv=13.8 Kva=150.0 %R=0.565
~ wdg=2 bus=node_408835895.1.2.3.4 conn=wye Kv=0.2200 Kva=150.0 %R=0.565
New Transformer.326517027_326721521 phases=3 windings=2 Xhl=3.840
~ wdg=1 bus=node_425867642.1.2.3 conn=delta Kv=13.8 Kva=150.0 %R=0.565
~ wdg=2 bus=node_412165089.1.2.3.4 conn=wye Kv=0.2200 Kva=150.0 %R=0.565
New Transformer.326517037_326833007 phases=3 windings=2 Xhl=3.840
~ wdg=1 bus=node_435226406.1.2.3 conn=delta Kv=13.8 Kva=150.0 %R=0.565
~ wdg=2 bus=node_412132887.1.2.3.4 conn=wye Kv=0.2200 Kva=150.0 %R=0.565
New Transformer.326516808_326721676 phases=3 windings=2 Xhl=3.840
~ wdg=1 bus=node_440751468.1.2.3 conn=delta Kv=13.8 Kva=150.0 %R=0.565
~ wdg=2 bus=node_412130985.1.2.3.4 conn=wye Kv=0.2200 Kva=150.0 %R=0.565
New Transformer.326516878_326833005 phases=3 windings=2 Xhl=3.840
~ wdg=1 bus=node_443161294.1.2.3 conn=delta Kv=13.8 Kva=150.0 %R=0.565
~ wdg=2 bus=node_412130520.1.2.3.4 conn=wye Kv=0.2200 Kva=150.0 %R=0.565
New Transformer.326516371_2034355498 phases=3 windings=2 Xhl=3.840
~ wdg=1 bus=node_434121936.1.2.3 conn=delta Kv=13.8 Kva=150.0 %R=0.565
~ wdg=2 bus=node_412154650.1.2.3.4 conn=wye Kv=0.2200 Kva=150.0 %R=0.565
New Transformer.326516590_326872519 phases=3 windings=2 Xhl=3.840
~ wdg=1 bus=node_426803991.1.2.3 conn=delta Kv=13.8 Kva=150.0 %R=0.565
~ wdg=2 bus=node_412199868.1.2.3.4 conn=wye Kv=0.2200 Kva=150.0 %R=0.565
New Transformer.326516244_326876175 phases=3 windings=2 Xhl=3.840
~ wdg=1 bus=node_442595168.1.2.3 conn=delta Kv=13.8 Kva=150.0 %R=0.565
~ wdg=2 bus=node_412101543.1.2.3.4 conn=wye Kv=0.2200 Kva=150.0 %R=0.565
New Transformer.540073601_540073600 phases=3 windings=2 Xhl=3.840
~ wdg=1 bus=node_810088912.1.2.3 conn=delta Kv=13.8 Kva=150.0 %R=0.565
~ wdg=2 bus=node_810088948.1.2.3.4 conn=wye Kv=0.2200 Kva=150.0 %R=0.565
New Transformer.326630584_1484216963 phases=3 windings=2 Xhl=3.840
~ wdg=1 bus=node_434762628.1.2.3 conn=delta Kv=13.8 Kva=150.0 %R=0.565
~ wdg=2 bus=node_413258942.1.2.3.4 conn=wye Kv=0.2200 Kva=150.0 %R=0.565
New Transformer.1462815828_1462815829 phases=3 windings=2 Xhl=3.840
~ wdg=1 bus=node_1760304473.1.2.3 conn=delta Kv=13.8 Kva=150.0 %R=0.565
~ wdg=2 bus=node_1760304132.1.2.3.4 conn=wye Kv=0.2200 Kva=150.0 %R=0.565
New Transformer.326630382_2079202034 phases=3 windings=2 Xhl=3.840
~ wdg=1 bus=node_443294818.1.2.3 conn=delta Kv=13.8 Kva=150.0 %R=0.565
~ wdg=2 bus=node_412100058.1.2.3.4 conn=wye Kv=0.2200 Kva=150.0 %R=0.565
New Transformer.326630335_326831620 phases=3 windings=2 Xhl=3.840
~ wdg=1 bus=node_435226260.1.2.3 conn=delta Kv=13.8 Kva=150.0 %R=0.565
~ wdg=2 bus=node_412100154.1.2.3.4 conn=wye Kv=0.2200 Kva=150.0 %R=0.565
New Transformer.326518847_326833006 phases=3 windings=2 Xhl=3.840
~ wdg=1 bus=node_443293833.1.2.3 conn=delta Kv=13.8 Kva=150.0 %R=0.565
~ wdg=2 bus=node_412102032.1.2.3.4 conn=wye Kv=0.2200 Kva=150.0 %R=0.565
New Transformer.976074168_976074167 phases=3 windings=2 Xhl=3.840
~ wdg=1 bus=node_1238209532.1.2.3 conn=delta Kv=13.8 Kva=150.0 %R=0.565
~ wdg=2 bus=node_1238209550.1.2.3.4 conn=wye Kv=0.2200 Kva=150.0 %R=0.565
New Transformer.326629408_326721436 phases=3 windings=2 Xhl=3.840
~ wdg=1 bus=node_426803931.1.2.3 conn=delta Kv=13.8 Kva=150.0 %R=0.565
~ wdg=2 bus=node_505675707.1.2.3.4 conn=wye Kv=0.2200 Kva=150.0 %R=0.565
New Transformer.326629415_2558653288 phases=3 windings=2 Xhl=3.840
~ wdg=1 bus=node_432016733.1.2.3 conn=delta Kv=13.8 Kva=150.0 %R=0.565
~ wdg=2 bus=node_413295909.1.2.3.4 conn=wye Kv=0.2200 Kva=150.0 %R=0.565
New Transformer.326629424_326845486 phases=3 windings=2 Xhl=3.840
~ wdg=1 bus=node_443158714.1.2.3 conn=delta Kv=13.8 Kva=150.0 %R=0.565
~ wdg=2 bus=node_412151707.1.2.3.4 conn=wye Kv=0.2200 Kva=150.0 %R=0.565
New Transformer.326518825_326833333 phases=3 windings=2 Xhl=3.840
~ wdg=1 bus=node_443027737.1.2.3 conn=delta Kv=13.8 Kva=150.0 %R=0.565
~ wdg=2 bus=node_412154509.1.2.3.4 conn=wye Kv=0.2200 Kva=150.0 %R=0.565
New Transformer.326628696_813416753 phases=3 windings=2 Xhl=3.840
~ wdg=1 bus=node_426211274.1.2.3 conn=delta Kv=13.8 Kva=150.0 %R=0.565
~ wdg=2 bus=node_412152712.1.2.3.4 conn=wye Kv=0.2200 Kva=150.0 %R=0.565
New Transformer.326518798_2613221123 phases=3 windings=2 Xhl=3.840
~ wdg=1 bus=node_443029155.1.2.3 conn=delta Kv=13.8 Kva=150.0 %R=0.565
~ wdg=2 bus=node_412103730.1.2.3.4 conn=wye Kv=0.2200 Kva=150.0 %R=0.565
New Transformer.1454424526_1454424527 phases=3 windings=2 Xhl=3.840
~ wdg=1 bus=node_1751510365.1.2.3 conn=delta Kv=13.8 Kva=150.0 %R=0.565
~ wdg=2 bus=node_1751510373.1.2.3.4 conn=wye Kv=0.2200 Kva=150.0 %R=0.565
New Transformer.326519242_326831633 phases=3 windings=2 Xhl=3.840
~ wdg=1 bus=node_443159864.1.2.3 conn=delta Kv=13.8 Kva=150.0 %R=0.565
~ wdg=2 bus=node_412131447.1.2.3.4 conn=wye Kv=0.2200 Kva=150.0 %R=0.565
New Transformer.326517708_1811454022 phases=3 windings=2 Xhl=3.840
~ wdg=1 bus=node_442732414.1.2.3 conn=delta Kv=13.8 Kva=150.0 %R=0.565
~ wdg=2 bus=node_2129781236.1.2.3.4 conn=wye Kv=0.2200 Kva=150.0 %R=0.565
New Transformer.326628135_2058118690 phases=3 windings=2 Xhl=3.840
~ wdg=1 bus=node_442730569.1.2.3 conn=delta Kv=13.8 Kva=150.0 %R=0.565
~ wdg=2 bus=node_413294100.1.2.3.4 conn=wye Kv=0.2200 Kva=150.0 %R=0.565
New Transformer.326518177_2596922387 phases=3 windings=2 Xhl=3.840
~ wdg=1 bus=node_426347478.1.2.3 conn=delta Kv=13.8 Kva=150.0 %R=0.565
~ wdg=2 bus=node_408835004.1.2.3.4 conn=wye Kv=0.2200 Kva=150.0 %R=0.565
New Transformer.326518105_601220116 phases=3 windings=2 Xhl=3.840
~ wdg=1 bus=node_425707763.1.2.3 conn=delta Kv=13.8 Kva=150.0 %R=0.565
~ wdg=2 bus=node_412167120.1.2.3.4 conn=wye Kv=0.2200 Kva=150.0 %R=0.565
New Transformer.1667201748_1667201747 phases=3 windings=2 Xhl=3.840
~ wdg=1 bus=node_1956853151.1.2.3 conn=delta Kv=13.8 Kva=150.0 %R=0.565
~ wdg=2 bus=node_459550922.1.2.3.4 conn=wye Kv=0.2200 Kva=150.0 %R=0.565
New Transformer.1335369642_2507953650 phases=3 windings=2 Xhl=3.840
~ wdg=1 bus=node_442595228.1.2.3 conn=delta Kv=13.8 Kva=150.0 %R=0.565
~ wdg=2 bus=node_462107786.1.2.3.4 conn=wye Kv=0.2200 Kva=150.0 %R=0.565
New Transformer.326517436_2001265935 phases=3 windings=2 Xhl=3.840
~ wdg=1 bus=node_2501512942.1.2.3 conn=delta Kv=13.8 Kva=150.0 %R=0.565
~ wdg=2 bus=node_459003529.1.2.3.4 conn=wye Kv=0.2200 Kva=150.0 %R=0.565
New Transformer.1207026275_2038993029 phases=3 windings=2 Xhl=3.840
~ wdg=1 bus=node_440750197.1.2.3 conn=delta Kv=13.8 Kva=150.0 %R=0.565
~ wdg=2 bus=node_462362575.1.2.3.4 conn=wye Kv=0.2200 Kva=150.0 %R=0.565
New Transformer.870346574_870346573 phases=3 windings=2 Xhl=3.840
~ wdg=1 bus=node_443292689.1.2.3 conn=delta Kv=13.8 Kva=150.0 %R=0.565
~ wdg=2 bus=node_412151557.1.2.3.4 conn=wye Kv=0.2200 Kva=150.0 %R=0.565
New Transformer.701704012_701704011 phases=3 windings=2 Xhl=3.840
~ wdg=1 bus=node_443026058.1.2.3 conn=delta Kv=13.8 Kva=150.0 %R=0.565
~ wdg=2 bus=node_458368984.1.2.3.4 conn=wye Kv=0.2200 Kva=150.0 %R=0.565
New Transformer.326369840_326899004 phases=3 windings=2 Xhl=3.840
~ wdg=1 bus=node_443160419.1.2.3 conn=delta Kv=13.8 Kva=150.0 %R=0.565
~ wdg=2 bus=node_412101648.1.2.3.4 conn=wye Kv=0.2200 Kva=150.0 %R=0.565
New Transformer.326369789_326872470 phases=3 windings=2 Xhl=3.840
~ wdg=1 bus=node_440749893.1.2.3 conn=delta Kv=13.8 Kva=150.0 %R=0.565
~ wdg=2 bus=node_412130772.1.2.3.4 conn=wye Kv=0.2200 Kva=150.0 %R=0.565
New Transformer.326369914_326874965 phases=3 windings=2 Xhl=3.840
~ wdg=1 bus=node_432017058.1.2.3 conn=delta Kv=13.8 Kva=150.0 %R=0.565
~ wdg=2 bus=node_505646467.1.2.3.4 conn=wye Kv=0.2200 Kva=150.0 %R=0.565
New Transformer.326240138_2006491738 phases=3 windings=2 Xhl=3.840
~ wdg=1 bus=node_425707787.1.2.3 conn=delta Kv=13.8 Kva=150.0 %R=0.565
~ wdg=2 bus=node_412199568.1.2.3.4 conn=wye Kv=0.2200 Kva=150.0 %R=0.565
New Transformer.326239062_1901413435 phases=3 windings=2 Xhl=3.840
~ wdg=1 bus=node_882013374.1.2.3 conn=delta Kv=13.8 Kva=150.0 %R=0.565
~ wdg=2 bus=node_882013366.1.2.3.4 conn=wye Kv=0.2200 Kva=150.0 %R=0.565
New Transformer.1078927723_1078927722 phases=3 windings=2 Xhl=3.840
~ wdg=1 bus=node_1346147706.1.2.3 conn=delta Kv=13.8 Kva=150.0 %R=0.565
~ wdg=2 bus=node_1346147681.1.2.3.4 conn=wye Kv=0.2200 Kva=150.0 %R=0.565
New Transformer.326238285_2567800140 phases=3 windings=2 Xhl=3.840
~ wdg=1 bus=node_434280251.1.2.3 conn=delta Kv=13.8 Kva=150.0 %R=0.565
~ wdg=2 bus=node_412102494.1.2.3.4 conn=wye Kv=0.2200 Kva=150.0 %R=0.565
New Transformer.2311782490_2311782489 phases=3 windings=2 Xhl=3.840
~ wdg=1 bus=node_2092601211.1.2.3 conn=delta Kv=13.8 Kva=150.0 %R=0.565
~ wdg=2 bus=node_2561311311.1.2.3.4 conn=wye Kv=0.2200 Kva=150.0 %R=0.565
New Transformer.2154656204_2154656208 phases=3 windings=2 Xhl=3.840
~ wdg=1 bus=node_440752852.1.2.3 conn=delta Kv=13.8 Kva=150.0 %R=0.565
~ wdg=2 bus=node_2464687323.1.2.3.4 conn=wye Kv=0.2200 Kva=150.0 %R=0.565
New Transformer.325725503_326876206 phases=3 windings=2 Xhl=3.840
~ wdg=1 bus=node_443159234.1.2.3 conn=delta Kv=13.8 Kva=150.0 %R=0.565
~ wdg=2 bus=node_412102341.1.2.3.4 conn=wye Kv=0.2200 Kva=150.0 %R=0.565
New Transformer.325725273_326719201 phases=3 windings=2 Xhl=3.840
~ wdg=1 bus=node_878144698.1.2.3 conn=delta Kv=13.8 Kva=150.0 %R=0.565
~ wdg=2 bus=node_460610158.1.2.3.4 conn=wye Kv=0.2200 Kva=150.0 %R=0.565
New Transformer.325725404_950794657 phases=3 windings=2 Xhl=3.840
~ wdg=1 bus=node_443294658.1.2.3 conn=delta Kv=13.8 Kva=150.0 %R=0.565
~ wdg=2 bus=node_408835898.1.2.3.4 conn=wye Kv=0.2200 Kva=150.0 %R=0.565
New Transformer.325724405_326898990 phases=3 windings=2 Xhl=3.840
~ wdg=1 bus=node_443158359.1.2.3 conn=delta Kv=13.8 Kva=150.0 %R=0.565
~ wdg=2 bus=node_412130880.1.2.3.4 conn=wye Kv=0.2200 Kva=150.0 %R=0.565
New Transformer.325723802_326719176 phases=3 windings=2 Xhl=3.840
~ wdg=1 bus=node_443158493.1.2.3 conn=delta Kv=13.8 Kva=150.0 %R=0.565
~ wdg=2 bus=node_412151290.1.2.3.4 conn=wye Kv=0.2200 Kva=150.0 %R=0.565
New Transformer.325724211_326875597 phases=3 windings=2 Xhl=3.840
~ wdg=1 bus=node_439689027.1.2.3 conn=delta Kv=13.8 Kva=150.0 %R=0.565
~ wdg=2 bus=node_513863221.1.2.3.4 conn=wye Kv=0.2200 Kva=150.0 %R=0.565
New Transformer.325723761_326872616 phases=3 windings=2 Xhl=3.840
~ wdg=1 bus=node_442730539.1.2.3 conn=delta Kv=13.8 Kva=150.0 %R=0.565
~ wdg=2 bus=node_412199517.1.2.3.4 conn=wye Kv=0.2200 Kva=150.0 %R=0.565
New Transformer.325724021_326831559 phases=3 windings=2 Xhl=3.840
~ wdg=1 bus=node_442434124.1.2.3 conn=delta Kv=13.8 Kva=150.0 %R=0.565
~ wdg=2 bus=node_412103700.1.2.3.4 conn=wye Kv=0.2200 Kva=150.0 %R=0.565
New Transformer.326373546_326843383 phases=3 windings=2 Xhl=3.840
~ wdg=1 bus=node_440921659.1.2.3 conn=delta Kv=13.8 Kva=150.0 %R=0.565
~ wdg=2 bus=node_412741906.1.2.3.4 conn=wye Kv=0.2200 Kva=150.0 %R=0.565
New Transformer.326373438_326833274 phases=3 windings=2 Xhl=3.840
~ wdg=1 bus=node_443025723.1.2.3 conn=delta Kv=13.8 Kva=150.0 %R=0.565
~ wdg=2 bus=node_499990786.1.2.3.4 conn=wye Kv=0.2200 Kva=150.0 %R=0.565
New Transformer.326373949_2581904908 phases=3 windings=2 Xhl=3.840
~ wdg=1 bus=node_443159499.1.2.3 conn=delta Kv=13.8 Kva=150.0 %R=0.565
~ wdg=2 bus=node_412131846.1.2.3.4 conn=wye Kv=0.2200 Kva=150.0 %R=0.565
New Transformer.326373890_326718850 phases=3 windings=2 Xhl=3.840
~ wdg=1 bus=node_443159458.1.2.3 conn=delta Kv=13.8 Kva=150.0 %R=0.565
~ wdg=2 bus=node_412130541.1.2.3.4 conn=wye Kv=0.2200 Kva=150.0 %R=0.565
New Transformer.326373116_836492670 phases=3 windings=2 Xhl=3.840
~ wdg=1 bus=node_443027781.1.2.3 conn=delta Kv=13.8 Kva=150.0 %R=0.565
~ wdg=2 bus=node_412153447.1.2.3.4 conn=wye Kv=0.2200 Kva=150.0 %R=0.565
New Transformer.326372966_326872706 phases=3 windings=2 Xhl=3.840
~ wdg=1 bus=node_435225791.1.2.3 conn=delta Kv=13.8 Kva=150.0 %R=0.565
~ wdg=2 bus=node_412101756.1.2.3.4 conn=wye Kv=0.2200 Kva=150.0 %R=0.565
New Transformer.326370929_2604941082 phases=3 windings=2 Xhl=4.960
~ wdg=1 bus=node_432017342.1.2.3 conn=delta Kv=13.8 Kva=150.0 %R=0.305
~ wdg=2 bus=node_412198761.1.2.3.4 conn=wye Kv=0.2200 Kva=150.0 %R=0.305
New Transformer.326371648_1337877286 phases=3 windings=2 Xhl=3.840
~ wdg=1 bus=node_434906189.1.2.3 conn=delta Kv=13.8 Kva=150.0 %R=0.565
~ wdg=2 bus=node_412132065.1.2.3.4 conn=wye Kv=0.2200 Kva=150.0 %R=0.565
New Transformer.326371654_563196746 phases=3 windings=2 Xhl=3.840
~ wdg=1 bus=node_443161248.1.2.3 conn=delta Kv=13.8 Kva=150.0 %R=0.565
~ wdg=2 bus=node_412132101.1.2.3.4 conn=wye Kv=0.2200 Kva=150.0 %R=0.565
New Transformer.326372289_326719091 phases=3 windings=2 Xhl=3.840
~ wdg=1 bus=node_443027562.1.2.3 conn=delta Kv=13.8 Kva=112.5 %R=0.565
~ wdg=2 bus=node_412165638.1.2.3.4 conn=wye Kv=0.2200 Kva=112.5 %R=0.565
New Transformer.326373888_326899008 phases=3 windings=2 Xhl=3.840
~ wdg=1 bus=node_425709169.1.2.3 conn=delta Kv=13.8 Kva=112.5 %R=0.565
~ wdg=2 bus=node_412101996.1.2.3.4 conn=wye Kv=0.2200 Kva=112.5 %R=0.565
New Transformer.326370138_326832994 phases=3 windings=2 Xhl=3.840
~ wdg=1 bus=node_443028346.1.2.3 conn=delta Kv=13.8 Kva=112.5 %R=0.565
~ wdg=2 bus=node_412153729.1.2.3.4 conn=wye Kv=0.2200 Kva=112.5 %R=0.565
New Transformer.326370236_326872633 phases=3 windings=2 Xhl=3.840
~ wdg=1 bus=node_442879170.1.2.3 conn=delta Kv=13.8 Kva=112.5 %R=0.565
~ wdg=2 bus=node_412166466.1.2.3.4 conn=wye Kv=0.2200 Kva=112.5 %R=0.565
New Transformer.326371551_326876163 phases=3 windings=2 Xhl=3.840
~ wdg=1 bus=node_435365771.1.2.3 conn=delta Kv=13.8 Kva=112.5 %R=0.565
~ wdg=2 bus=node_412152307.1.2.3.4 conn=wye Kv=0.2200 Kva=112.5 %R=0.565
New Transformer.326373261_326829263 phases=3 windings=2 Xhl=3.840
~ wdg=1 bus=node_443158070.1.2.3 conn=delta Kv=13.8 Kva=112.5 %R=0.565
~ wdg=2 bus=node_412103721.1.2.3.4 conn=wye Kv=0.2200 Kva=112.5 %R=0.565
New Transformer.326373547_326845313 phases=3 windings=2 Xhl=3.840
~ wdg=1 bus=node_434122835.1.2.3 conn=delta Kv=13.8 Kva=112.5 %R=0.565
~ wdg=2 bus=node_412100265.1.2.3.4 conn=wye Kv=0.2200 Kva=112.5 %R=0.565
New Transformer.325724790_326845470 phases=3 windings=2 Xhl=3.840
~ wdg=1 bus=node_435224112.1.2.3 conn=delta Kv=13.8 Kva=112.5 %R=0.565
~ wdg=2 bus=node_408835892.1.2.3.4 conn=wye Kv=0.2200 Kva=112.5 %R=0.565
New Transformer.325725515_326719194 phases=3 windings=2 Xhl=3.840
~ wdg=1 bus=node_443294603.1.2.3 conn=delta Kv=13.8 Kva=112.5 %R=0.565
~ wdg=2 bus=node_412101168.1.2.3.4 conn=wye Kv=0.2200 Kva=112.5 %R=0.565
New Transformer.325725173_326829238 phases=3 windings=2 Xhl=3.840
~ wdg=1 bus=node_443294513.1.2.3 conn=delta Kv=13.8 Kva=112.5 %R=0.565
~ wdg=2 bus=node_412131432.1.2.3.4 conn=wye Kv=0.2200 Kva=112.5 %R=0.565
New Transformer.326237206_326831630 phases=3 windings=2 Xhl=3.840
~ wdg=1 bus=node_443294583.1.2.3 conn=delta Kv=13.8 Kva=112.5 %R=0.565
~ wdg=2 bus=node_412100040.1.2.3.4 conn=wye Kv=0.2200 Kva=112.5 %R=0.565
New Transformer.326237465_326872693 phases=3 windings=2 Xhl=3.840
~ wdg=1 bus=node_1224075327.1.2.3 conn=delta Kv=13.8 Kva=112.5 %R=0.565
~ wdg=2 bus=node_412130385.1.2.3.4 conn=wye Kv=0.2200 Kva=112.5 %R=0.565
New Transformer.326238817_326832981 phases=3 windings=2 Xhl=3.840
~ wdg=1 bus=node_425867072.1.2.3 conn=delta Kv=13.8 Kva=112.5 %R=0.565
~ wdg=2 bus=node_412131840.1.2.3.4 conn=wye Kv=0.2200 Kva=112.5 %R=0.565
New Transformer.326238027_326832983 phases=3 windings=2 Xhl=3.840
~ wdg=1 bus=node_443159444.1.2.3 conn=delta Kv=13.8 Kva=112.5 %R=0.565
~ wdg=2 bus=node_412151293.1.2.3.4 conn=wye Kv=0.2200 Kva=112.5 %R=0.565
New Transformer.326239115_326719327 phases=3 windings=2 Xhl=3.840
~ wdg=1 bus=node_440751027.1.2.3 conn=delta Kv=13.8 Kva=112.5 %R=0.565
~ wdg=2 bus=node_412100259.1.2.3.4 conn=wye Kv=0.2200 Kva=112.5 %R=0.565
New Transformer.326517943_326845458 phases=3 windings=2 Xhl=3.840
~ wdg=1 bus=node_435226411.1.2.3 conn=delta Kv=13.8 Kva=112.5 %R=0.565
~ wdg=2 bus=node_412102026.1.2.3.4 conn=wye Kv=0.2200 Kva=112.5 %R=0.565
New Transformer.326628140_326719082 phases=3 windings=2 Xhl=3.840
~ wdg=1 bus=node_432017856.1.2.3 conn=delta Kv=13.8 Kva=112.5 %R=0.565
~ wdg=2 bus=node_412166106.1.2.3.4 conn=wye Kv=0.2200 Kva=112.5 %R=0.565
New Transformer.326518629_326833182 phases=3 windings=2 Xhl=3.840
~ wdg=1 bus=node_426213113.1.2.3 conn=delta Kv=13.8 Kva=112.5 %R=0.565
~ wdg=2 bus=node_412167291.1.2.3.4 conn=wye Kv=0.2200 Kva=112.5 %R=0.565
New Transformer.326629315_326875397 phases=3 windings=2 Xhl=3.840
~ wdg=1 bus=node_440921069.1.2.3 conn=delta Kv=13.8 Kva=112.5 %R=0.565
~ wdg=2 bus=node_412816227.1.2.3.4 conn=wye Kv=0.2200 Kva=112.5 %R=0.565
New Transformer.326629498_326845485 phases=3 windings=2 Xhl=3.840
~ wdg=1 bus=node_443158509.1.2.3 conn=delta Kv=13.8 Kva=112.5 %R=0.565
~ wdg=2 bus=node_412102080.1.2.3.4 conn=wye Kv=0.2200 Kva=112.5 %R=0.565
New Transformer.326630179_326832982 phases=3 windings=2 Xhl=3.840
~ wdg=1 bus=node_443158318.1.2.3 conn=delta Kv=13.8 Kva=112.5 %R=0.565
~ wdg=2 bus=node_412131714.1.2.3.4 conn=wye Kv=0.2200 Kva=112.5 %R=0.565
New Transformer.326631631_326721816 phases=3 windings=2 Xhl=3.840
~ wdg=1 bus=node_2029314513.1.2.3 conn=delta Kv=13.8 Kva=112.5 %R=0.565
~ wdg=2 bus=node_458751079.1.2.3.4 conn=wye Kv=0.2200 Kva=112.5 %R=0.565
New Transformer.326630397_326721842 phases=3 windings=2 Xhl=3.840
~ wdg=1 bus=node_434593949.1.2.3 conn=delta Kv=13.8 Kva=112.5 %R=0.565
~ wdg=2 bus=node_498827069.1.2.3.4 conn=wye Kv=0.2200 Kva=112.5 %R=0.565
New Transformer.326630440_326833009 phases=3 windings=2 Xhl=3.840
~ wdg=1 bus=node_443158834.1.2.3 conn=delta Kv=13.8 Kva=112.5 %R=0.565
~ wdg=2 bus=node_412130859.1.2.3.4 conn=wye Kv=0.2200 Kva=112.5 %R=0.565
New Transformer.326516318_326829259 phases=3 windings=2 Xhl=3.840
~ wdg=1 bus=node_425710880.1.2.3 conn=delta Kv=13.8 Kva=112.5 %R=0.565
~ wdg=2 bus=node_412131993.1.2.3.4 conn=wye Kv=0.2200 Kva=112.5 %R=0.565
New Transformer.326627536_326898978 phases=3 windings=2 Xhl=3.840
~ wdg=1 bus=node_442879310.1.2.3 conn=delta Kv=13.8 Kva=112.5 %R=0.565
~ wdg=2 bus=node_412103748.1.2.3.4 conn=wye Kv=0.2200 Kva=112.5 %R=0.565
New Transformer.326516809_326831641 phases=3 windings=2 Xhl=3.840
~ wdg=1 bus=node_443293602.1.2.3 conn=delta Kv=13.8 Kva=112.5 %R=0.565
~ wdg=2 bus=node_412100193.1.2.3.4 conn=wye Kv=0.2200 Kva=112.5 %R=0.565
New Transformer.326516899_326872687 phases=3 windings=2 Xhl=3.840
~ wdg=1 bus=node_443159594.1.2.3 conn=delta Kv=13.8 Kva=112.5 %R=0.565
~ wdg=2 bus=node_412131081.1.2.3.4 conn=wye Kv=0.2200 Kva=112.5 %R=0.565
New Transformer.325723121_326876237 phases=3 windings=2 Xhl=3.840
~ wdg=1 bus=node_443293468.1.2.3 conn=delta Kv=13.8 Kva=112.5 %R=0.565
~ wdg=2 bus=node_412130517.1.2.3.4 conn=wye Kv=0.2200 Kva=112.5 %R=0.565
New Transformer.325723167_326872698 phases=3 windings=2 Xhl=3.840
~ wdg=1 bus=node_434121616.1.2.3 conn=delta Kv=13.8 Kva=112.5 %R=0.565
~ wdg=2 bus=node_412130406.1.2.3.4 conn=wye Kv=0.2200 Kva=112.5 %R=0.565
New Transformer.325723087_326831629 phases=3 windings=2 Xhl=3.840
~ wdg=1 bus=node_426802226.1.2.3 conn=delta Kv=13.8 Kva=112.5 %R=0.565
~ wdg=2 bus=node_412100031.1.2.3.4 conn=wye Kv=0.2200 Kva=112.5 %R=0.565
New Transformer.325723036_326872690 phases=3 windings=2 Xhl=3.840
~ wdg=1 bus=node_434119377.1.2.3 conn=delta Kv=13.8 Kva=112.5 %R=0.565
~ wdg=2 bus=node_513991382.1.2.3.4 conn=wye Kv=0.2200 Kva=112.5 %R=0.565
New Transformer.325723013_326898973 phases=3 windings=2 Xhl=3.810
~ wdg=1 bus=node_443028400.1.2.3 conn=delta Kv=13.8 Kva=100.0 %R=0.610
~ wdg=2 bus=node_412129542.1.2.3.4 conn=wye Kv=0.2200 Kva=100.0 %R=0.610
New Transformer.326370522_326721583 phases=3 windings=2 Xhl=3.770
~ wdg=1 bus=node_442730060.1.2.3 conn=delta Kv=13.8 Kva=75.0 %R=0.670
~ wdg=2 bus=node_413341254.1.2.3.4 conn=wye Kv=0.2200 Kva=75.0 %R=0.670
New Transformer.326370547_326718859 phases=3 windings=2 Xhl=3.770
~ wdg=1 bus=node_443158143.1.2.3 conn=delta Kv=13.8 Kva=75.0 %R=0.670
~ wdg=2 bus=node_515318107.1.2.3.4 conn=wye Kv=0.2200 Kva=75.0 %R=0.670
New Transformer.326370718_326719183 phases=3 windings=2 Xhl=3.770
~ wdg=1 bus=node_442879285.1.2.3 conn=delta Kv=13.8 Kva=75.0 %R=0.670
~ wdg=2 bus=node_412103349.1.2.3.4 conn=wye Kv=0.2200 Kva=75.0 %R=0.670
New Transformer.326370366_326719171 phases=3 windings=2 Xhl=3.770
~ wdg=1 bus=node_443026912.1.2.3 conn=delta Kv=13.8 Kva=75.0 %R=0.670
~ wdg=2 bus=node_412153516.1.2.3.4 conn=wye Kv=0.2200 Kva=75.0 %R=0.670
New Transformer.326370165_326833296 phases=3 windings=2 Xhl=3.770
~ wdg=1 bus=node_442879884.1.2.3 conn=delta Kv=13.8 Kva=75.0 %R=0.670
~ wdg=2 bus=node_412101195.1.2.3.4 conn=wye Kv=0.2200 Kva=75.0 %R=0.670
New Transformer.326370253_2600412133 phases=3 windings=2 Xhl=4.960
~ wdg=1 bus=node_426498172.1.2.3 conn=delta Kv=13.8 Kva=75.0 %R=0.305
~ wdg=2 bus=node_412130283.1.2.3.4 conn=wye Kv=0.2200 Kva=75.0 %R=0.305
New Transformer.326370393_326833016 phases=3 windings=2 Xhl=3.770
~ wdg=1 bus=node_435223791.1.2.3 conn=delta Kv=13.8 Kva=75.0 %R=0.670
~ wdg=2 bus=node_408835292.1.2.3.4 conn=wye Kv=0.2200 Kva=75.0 %R=0.670
New Transformer.326371203_326876044 phases=3 windings=2 Xhl=3.770
~ wdg=1 bus=node_442882983.1.2.3 conn=delta Kv=13.8 Kva=75.0 %R=0.670
~ wdg=2 bus=node_413344005.1.2.3.4 conn=wye Kv=0.2200 Kva=75.0 %R=0.670
New Transformer.326371210_326875727 phases=3 windings=2 Xhl=3.770
~ wdg=1 bus=node_435368568.1.2.3 conn=delta Kv=13.8 Kva=75.0 %R=0.670
~ wdg=2 bus=node_413197798.1.2.3.4 conn=wye Kv=0.2200 Kva=75.0 %R=0.670
New Transformer.326371231_326876372 phases=3 windings=2 Xhl=3.770
~ wdg=1 bus=node_439689676.1.2.3 conn=delta Kv=13.8 Kva=75.0 %R=0.670
~ wdg=2 bus=node_412101588.1.2.3.4 conn=wye Kv=0.2200 Kva=75.0 %R=0.670
New Transformer.326371239_326719225 phases=3 windings=2 Xhl=3.770
~ wdg=1 bus=node_426500515.1.2.3 conn=delta Kv=13.8 Kva=75.0 %R=0.670
~ wdg=2 bus=node_408835841.1.2.3.4 conn=wye Kv=0.2200 Kva=75.0 %R=0.670
New Transformer.326371244_326901208 phases=3 windings=2 Xhl=3.770
~ wdg=1 bus=node_432016773.1.2.3 conn=delta Kv=13.8 Kva=75.0 %R=0.670
~ wdg=2 bus=node_413260991.1.2.3.4 conn=wye Kv=0.2200 Kva=75.0 %R=0.670
New Transformer.326371095_326833235 phases=3 windings=2 Xhl=3.770
~ wdg=1 bus=node_434278992.1.2.3 conn=delta Kv=13.8 Kva=75.0 %R=0.670
~ wdg=2 bus=node_412199502.1.2.3.4 conn=wye Kv=0.2200 Kva=75.0 %R=0.670
New Transformer.326371395_326872625 phases=3 windings=2 Xhl=3.770
~ wdg=1 bus=node_434437895.1.2.3 conn=delta Kv=13.8 Kva=75.0 %R=0.670
~ wdg=2 bus=node_412165497.1.2.3.4 conn=wye Kv=0.2200 Kva=75.0 %R=0.670
New Transformer.326371069_326721667 phases=3 windings=2 Xhl=3.770
~ wdg=1 bus=node_442730204.1.2.3 conn=delta Kv=13.8 Kva=75.0 %R=0.670
~ wdg=2 bus=node_412102560.1.2.3.4 conn=wye Kv=0.2200 Kva=75.0 %R=0.670
New Transformer.326370825_326872707 phases=3 windings=2 Xhl=3.770
~ wdg=1 bus=node_435224727.1.2.3 conn=delta Kv=13.8 Kva=75.0 %R=0.670
~ wdg=2 bus=node_412100580.1.2.3.4 conn=wye Kv=0.2200 Kva=75.0 %R=0.670
New Transformer.326370870_326718834 phases=3 windings=2 Xhl=3.770
~ wdg=1 bus=node_434438854.1.2.3 conn=delta Kv=13.8 Kva=75.0 %R=0.670
~ wdg=2 bus=node_413319155.1.2.3.4 conn=wye Kv=0.2200 Kva=75.0 %R=0.670
New Transformer.326370873_326718686 phases=3 windings=2 Xhl=3.770
~ wdg=1 bus=node_442879515.1.2.3 conn=delta Kv=13.8 Kva=75.0 %R=0.670
~ wdg=2 bus=node_412164831.1.2.3.4 conn=wye Kv=0.2200 Kva=75.0 %R=0.670
New Transformer.326370786_1416650716 phases=3 windings=2 Xhl=3.770
~ wdg=1 bus=node_439499262.1.2.3 conn=delta Kv=13.8 Kva=75.0 %R=0.670
~ wdg=2 bus=node_412101330.1.2.3.4 conn=wye Kv=0.2200 Kva=75.0 %R=0.670
New Transformer.326370792_326833055 phases=3 windings=2 Xhl=3.770
~ wdg=1 bus=node_426211584.1.2.3 conn=delta Kv=13.8 Kva=75.0 %R=0.670
~ wdg=2 bus=node_412102476.1.2.3.4 conn=wye Kv=0.2200 Kva=75.0 %R=0.670
New Transformer.326370591_326872639 phases=3 windings=2 Xhl=3.770
~ wdg=1 bus=node_440921284.1.2.3 conn=delta Kv=13.8 Kva=75.0 %R=0.670
~ wdg=2 bus=node_412133400.1.2.3.4 conn=wye Kv=0.2200 Kva=75.0 %R=0.670
New Transformer.326372351_326845288 phases=3 windings=2 Xhl=3.770
~ wdg=1 bus=node_440752238.1.2.3 conn=delta Kv=13.8 Kva=75.0 %R=0.670
~ wdg=2 bus=node_412131573.1.2.3.4 conn=wye Kv=0.2200 Kva=75.0 %R=0.670
New Transformer.326372017_326831807 phases=3 windings=2 Xhl=3.770
~ wdg=1 bus=node_442731530.1.2.3 conn=delta Kv=13.8 Kva=75.0 %R=0.670
~ wdg=2 bus=node_412178402.1.2.3.4 conn=wye Kv=0.2200 Kva=75.0 %R=0.670
New Transformer.326372077_326845423 phases=3 windings=2 Xhl=3.770
~ wdg=1 bus=node_426803306.1.2.3 conn=delta Kv=13.8 Kva=75.0 %R=0.670
~ wdg=2 bus=node_412131618.1.2.3.4 conn=wye Kv=0.2200 Kva=75.0 %R=0.670
New Transformer.326371830_326831457 phases=3 windings=2 Xhl=3.770
~ wdg=1 bus=node_442730110.1.2.3 conn=delta Kv=13.8 Kva=75.0 %R=0.670
~ wdg=2 bus=node_413341170.1.2.3.4 conn=wye Kv=0.2200 Kva=75.0 %R=0.670
New Transformer.326371838_326872674 phases=3 windings=2 Xhl=3.770
~ wdg=1 bus=node_425710940.1.2.3 conn=delta Kv=13.8 Kva=75.0 %R=0.670
~ wdg=2 bus=node_412130436.1.2.3.4 conn=wye Kv=0.2200 Kva=75.0 %R=0.670
New Transformer.326372033_326844620 phases=3 windings=2 Xhl=3.770
~ wdg=1 bus=node_435517417.1.2.3 conn=delta Kv=13.8 Kva=75.0 %R=0.670
~ wdg=2 bus=node_412890267.1.2.3.4 conn=wye Kv=0.2200 Kva=75.0 %R=0.670
New Transformer.326372041_326721448 phases=3 windings=2 Xhl=3.770
~ wdg=1 bus=node_432016302.1.2.3 conn=delta Kv=13.8 Kva=75.0 %R=0.670
~ wdg=2 bus=node_413260073.1.2.3.4 conn=wye Kv=0.2200 Kva=75.0 %R=0.670
New Transformer.326371624_326833012 phases=3 windings=2 Xhl=3.770
~ wdg=1 bus=node_435224186.1.2.3 conn=delta Kv=13.8 Kva=75.0 %R=0.670
~ wdg=2 bus=node_412102932.1.2.3.4 conn=wye Kv=0.2200 Kva=75.0 %R=0.670
New Transformer.326371910_326872755 phases=3 windings=2 Xhl=3.770
~ wdg=1 bus=node_439689012.1.2.3 conn=delta Kv=13.8 Kva=75.0 %R=0.670
~ wdg=2 bus=node_412102224.1.2.3.4 conn=wye Kv=0.2200 Kva=75.0 %R=0.670
New Transformer.326371979_326872646 phases=3 windings=2 Xhl=3.770
~ wdg=1 bus=node_442593276.1.2.3 conn=delta Kv=13.8 Kva=75.0 %R=0.670
~ wdg=2 bus=node_412131111.1.2.3.4 conn=wye Kv=0.2200 Kva=75.0 %R=0.670
New Transformer.326372045_326845215 phases=3 windings=2 Xhl=3.770
~ wdg=1 bus=node_442882953.1.2.3 conn=delta Kv=13.8 Kva=75.0 %R=0.670
~ wdg=2 bus=node_413344116.1.2.3.4 conn=wye Kv=0.2200 Kva=75.0 %R=0.670
New Transformer.326371759_326833053 phases=3 windings=2 Xhl=3.770
~ wdg=1 bus=node_439689586.1.2.3 conn=delta Kv=13.8 Kva=75.0 %R=0.670
~ wdg=2 bus=node_412101816.1.2.3.4 conn=wye Kv=0.2200 Kva=75.0 %R=0.670
New Transformer.326371498_1803621755 phases=3 windings=2 Xhl=3.770
~ wdg=1 bus=node_435676813.1.2.3 conn=delta Kv=13.8 Kva=75.0 %R=0.670
~ wdg=2 bus=node_412131294.1.2.3.4 conn=wye Kv=0.2200 Kva=75.0 %R=0.670
New Transformer.326371292_326901328 phases=3 windings=2 Xhl=3.770
~ wdg=1 bus=node_443027157.1.2.3 conn=delta Kv=13.8 Kva=75.0 %R=0.670
~ wdg=2 bus=node_412151428.1.2.3.4 conn=wye Kv=0.2200 Kva=75.0 %R=0.670
New Transformer.326371294_326872544 phases=3 windings=2 Xhl=3.770
~ wdg=1 bus=node_435366271.1.2.3 conn=delta Kv=13.8 Kva=75.0 %R=0.670
~ wdg=2 bus=node_412167030.1.2.3.4 conn=wye Kv=0.2200 Kva=75.0 %R=0.670
New Transformer.326371576_1635893775 phases=3 windings=2 Xhl=3.770
~ wdg=1 bus=node_434122276.1.2.3 conn=delta Kv=13.8 Kva=75.0 %R=0.670
~ wdg=2 bus=node_412711490.1.2.3.4 conn=wye Kv=0.2200 Kva=75.0 %R=0.670
New Transformer.326371399_326829247 phases=3 windings=2 Xhl=3.770
~ wdg=1 bus=node_443160409.1.2.3 conn=delta Kv=13.8 Kva=75.0 %R=0.670
~ wdg=2 bus=node_412099533.1.2.3.4 conn=wye Kv=0.2200 Kva=75.0 %R=0.670
New Transformer.326371408_326833039 phases=3 windings=2 Xhl=3.770
~ wdg=1 bus=node_426497912.1.2.3 conn=delta Kv=13.8 Kva=75.0 %R=0.670
~ wdg=2 bus=node_412099500.1.2.3.4 conn=wye Kv=0.2200 Kva=75.0 %R=0.670
New Transformer.326371334_326898956 phases=3 windings=2 Xhl=3.770
~ wdg=1 bus=node_426644416.1.2.3 conn=delta Kv=13.8 Kva=75.0 %R=0.670
~ wdg=2 bus=node_412178078.1.2.3.4 conn=wye Kv=0.2200 Kva=75.0 %R=0.670
New Transformer.326371175_326721671 phases=3 windings=2 Xhl=3.770
~ wdg=1 bus=node_432016933.1.2.3 conn=delta Kv=13.8 Kva=75.0 %R=0.670
~ wdg=2 bus=node_412130292.1.2.3.4 conn=wye Kv=0.2200 Kva=75.0 %R=0.670
New Transformer.326373205_326831635 phases=3 windings=2 Xhl=3.770
~ wdg=1 bus=node_443294493.1.2.3 conn=delta Kv=13.8 Kva=75.0 %R=0.670
~ wdg=2 bus=node_412131039.1.2.3.4 conn=wye Kv=0.2200 Kva=75.0 %R=0.670
New Transformer.326373371_1920251073 phases=3 windings=2 Xhl=3.770
~ wdg=1 bus=node_432016428.1.2.3 conn=delta Kv=13.8 Kva=75.0 %R=0.670
~ wdg=2 bus=node_412617742.1.2.3.4 conn=wye Kv=0.2200 Kva=75.0 %R=0.670
New Transformer.326373863_326831593 phases=3 windings=2 Xhl=3.770
~ wdg=1 bus=node_443028725.1.2.3 conn=delta Kv=13.8 Kva=75.0 %R=0.670
~ wdg=2 bus=node_412132014.1.2.3.4 conn=wye Kv=0.2200 Kva=75.0 %R=0.670
New Transformer.326373948_326845432 phases=3 windings=2 Xhl=3.770
~ wdg=1 bus=node_425708083.1.2.3 conn=delta Kv=13.8 Kva=75.0 %R=0.670
~ wdg=2 bus=node_412151410.1.2.3.4 conn=wye Kv=0.2200 Kva=75.0 %R=0.670
New Transformer.326373956_326901224 phases=3 windings=2 Xhl=3.770
~ wdg=1 bus=node_434278097.1.2.3 conn=delta Kv=13.8 Kva=75.0 %R=0.670
~ wdg=2 bus=node_413259974.1.2.3.4 conn=wye Kv=0.2200 Kva=75.0 %R=0.670
New Transformer.326372759_326831576 phases=3 windings=2 Xhl=3.770
~ wdg=1 bus=node_425709965.1.2.3 conn=delta Kv=13.8 Kva=75.0 %R=0.670
~ wdg=2 bus=node_412198728.1.2.3.4 conn=wye Kv=0.2200 Kva=75.0 %R=0.670
New Transformer.326372761_326718861 phases=3 windings=2 Xhl=3.770
~ wdg=1 bus=node_443161568.1.2.3 conn=delta Kv=13.8 Kva=75.0 %R=0.670
~ wdg=2 bus=node_413294991.1.2.3.4 conn=wye Kv=0.2200 Kva=75.0 %R=0.670
New Transformer.326372762_326831678 phases=3 windings=2 Xhl=3.770
~ wdg=1 bus=node_426346968.1.2.3 conn=delta Kv=13.8 Kva=75.0 %R=0.670
~ wdg=2 bus=node_412100364.1.2.3.4 conn=wye Kv=0.2200 Kva=75.0 %R=0.670
New Transformer.326372484_326721851 phases=3 windings=2 Xhl=3.770
~ wdg=1 bus=node_435828137.1.2.3 conn=delta Kv=13.8 Kva=75.0 %R=0.670
~ wdg=2 bus=node_412151518.1.2.3.4 conn=wye Kv=0.2200 Kva=75.0 %R=0.670
New Transformer.326372490_326876202 phases=3 windings=2 Xhl=3.770
~ wdg=1 bus=node_426645237.1.2.3 conn=delta Kv=13.8 Kva=75.0 %R=0.670
~ wdg=2 bus=node_412154887.1.2.3.4 conn=wye Kv=0.2200 Kva=75.0 %R=0.670
New Transformer.326372852_326833010 phases=3 windings=2 Xhl=3.770
~ wdg=1 bus=node_443161383.1.2.3 conn=delta Kv=13.8 Kva=75.0 %R=0.670
~ wdg=2 bus=node_412130241.1.2.3.4 conn=wye Kv=0.2200 Kva=75.0 %R=0.670
New Transformer.326373185_326872668 phases=3 windings=2 Xhl=3.770
~ wdg=1 bus=node_425709597.1.2.3 conn=delta Kv=13.8 Kva=75.0 %R=0.670
~ wdg=2 bus=node_412164216.1.2.3.4 conn=wye Kv=0.2200 Kva=75.0 %R=0.670
New Transformer.326372304_326845057 phases=3 windings=2 Xhl=3.770
~ wdg=1 bus=node_435673780.1.2.3 conn=delta Kv=13.8 Kva=75.0 %R=0.670
~ wdg=2 bus=node_413260067.1.2.3.4 conn=wye Kv=0.2200 Kva=75.0 %R=0.670
New Transformer.326372567_473576672 phases=3 windings=2 Xhl=3.770
~ wdg=1 bus=node_434758914.1.2.3 conn=delta Kv=13.8 Kva=75.0 %R=0.670
~ wdg=2 bus=node_412199688.1.2.3.4 conn=wye Kv=0.2200 Kva=75.0 %R=0.670
New Transformer.326372591_326872643 phases=3 windings=2 Xhl=3.770
~ wdg=1 bus=node_442435653.1.2.3 conn=delta Kv=13.8 Kva=75.0 %R=0.670
~ wdg=2 bus=node_412154851.1.2.3.4 conn=wye Kv=0.2200 Kva=75.0 %R=0.670
New Transformer.326372782_326875887 phases=3 windings=2 Xhl=3.770
~ wdg=1 bus=node_434438835.1.2.3 conn=delta Kv=13.8 Kva=75.0 %R=0.670
~ wdg=2 bus=node_413259539.1.2.3.4 conn=wye Kv=0.2200 Kva=75.0 %R=0.670
New Transformer.326372417_326829252 phases=3 windings=2 Xhl=3.770
~ wdg=1 bus=node_443161014.1.2.3 conn=delta Kv=13.8 Kva=75.0 %R=0.670
~ wdg=2 bus=node_408835688.1.2.3.4 conn=wye Kv=0.2200 Kva=75.0 %R=0.670
New Transformer.326372421_326845428 phases=3 windings=2 Xhl=3.770
~ wdg=1 bus=node_426803396.1.2.3 conn=delta Kv=13.8 Kva=75.0 %R=0.670
~ wdg=2 bus=node_412132212.1.2.3.4 conn=wye Kv=0.2200 Kva=75.0 %R=0.670
New Transformer.326372438_326845504 phases=3 windings=2 Xhl=3.770
~ wdg=1 bus=node_442880929.1.2.3 conn=delta Kv=13.8 Kva=75.0 %R=0.670
~ wdg=2 bus=node_412100712.1.2.3.4 conn=wye Kv=0.2200 Kva=75.0 %R=0.670
New Transformer.326372441_326845321 phases=3 windings=2 Xhl=3.770
~ wdg=1 bus=node_426645807.1.2.3 conn=delta Kv=13.8 Kva=75.0 %R=0.670
~ wdg=2 bus=node_412102296.1.2.3.4 conn=wye Kv=0.2200 Kva=75.0 %R=0.670
New Transformer.326372147_326872475 phases=3 windings=2 Xhl=3.770
~ wdg=1 bus=node_440750573.1.2.3 conn=delta Kv=13.8 Kva=75.0 %R=0.670
~ wdg=2 bus=node_412130748.1.2.3.4 conn=wye Kv=0.2200 Kva=75.0 %R=0.670
New Transformer.326372609_326717909 phases=3 windings=2 Xhl=3.770
~ wdg=1 bus=node_439689316.1.2.3 conn=delta Kv=13.8 Kva=75.0 %R=0.670
~ wdg=2 bus=node_412547046.1.2.3.4 conn=wye Kv=0.2200 Kva=75.0 %R=0.670
New Transformer.326371944_326845489 phases=3 windings=2 Xhl=3.770
~ wdg=1 bus=node_425868121.1.2.3 conn=delta Kv=13.8 Kva=75.0 %R=0.670
~ wdg=2 bus=node_412152793.1.2.3.4 conn=wye Kv=0.2200 Kva=75.0 %R=0.670
New Transformer.326372246_326832957 phases=3 windings=2 Xhl=3.770
~ wdg=1 bus=node_435677773.1.2.3 conn=delta Kv=13.8 Kva=75.0 %R=0.670
~ wdg=2 bus=node_412151929.1.2.3.4 conn=wye Kv=0.2200 Kva=75.0 %R=0.670
New Transformer.326373046_1177629582 phases=3 windings=2 Xhl=3.770
~ wdg=1 bus=node_426348528.1.2.3 conn=delta Kv=13.8 Kva=75.0 %R=0.670
~ wdg=2 bus=node_412177238.1.2.3.4 conn=wye Kv=0.2200 Kva=75.0 %R=0.670
New Transformer.326373689_326875876 phases=3 windings=2 Xhl=3.770
~ wdg=1 bus=node_425707683.1.2.3 conn=delta Kv=13.8 Kva=75.0 %R=0.670
~ wdg=2 bus=node_413260256.1.2.3.4 conn=wye Kv=0.2200 Kva=75.0 %R=0.670
New Transformer.326373795_326718826 phases=3 windings=2 Xhl=3.770
~ wdg=1 bus=node_425707633.1.2.3 conn=delta Kv=13.8 Kva=75.0 %R=0.670
~ wdg=2 bus=node_413259416.1.2.3.4 conn=wye Kv=0.2200 Kva=75.0 %R=0.670
New Transformer.326373798_326876131 phases=3 windings=2 Xhl=3.770
~ wdg=1 bus=node_440750598.1.2.3 conn=delta Kv=13.8 Kva=75.0 %R=0.670
~ wdg=2 bus=node_412154725.1.2.3.4 conn=wye Kv=0.2200 Kva=75.0 %R=0.670
New Transformer.326373218_326876180 phases=3 windings=2 Xhl=3.770
~ wdg=1 bus=node_426803261.1.2.3 conn=delta Kv=13.8 Kva=75.0 %R=0.670
~ wdg=2 bus=node_498901526.1.2.3.4 conn=wye Kv=0.2200 Kva=75.0 %R=0.670
New Transformer.326373531_326721863 phases=3 windings=2 Xhl=3.770
~ wdg=1 bus=node_435365831.1.2.3 conn=delta Kv=13.8 Kva=75.0 %R=0.670
~ wdg=2 bus=node_412177175.1.2.3.4 conn=wye Kv=0.2200 Kva=75.0 %R=0.670
New Transformer.326373041_326898929 phases=3 windings=2 Xhl=3.770
~ wdg=1 bus=node_435828528.1.2.3 conn=delta Kv=13.8 Kva=75.0 %R=0.670
~ wdg=2 bus=node_412151902.1.2.3.4 conn=wye Kv=0.2200 Kva=75.0 %R=0.670
New Transformer.326373883_326833175 phases=3 windings=2 Xhl=3.770
~ wdg=1 bus=node_442730510.1.2.3 conn=delta Kv=13.8 Kva=75.0 %R=0.670
~ wdg=2 bus=node_412164522.1.2.3.4 conn=wye Kv=0.2200 Kva=75.0 %R=0.670
New Transformer.326373406_326831849 phases=3 windings=2 Xhl=3.770
~ wdg=1 bus=node_439496874.1.2.3 conn=delta Kv=13.8 Kva=75.0 %R=0.670
~ wdg=2 bus=node_412132230.1.2.3.4 conn=wye Kv=0.2200 Kva=75.0 %R=0.670
New Transformer.326373111_326901240 phases=3 windings=2 Xhl=3.770
~ wdg=1 bus=node_443292214.1.2.3 conn=delta Kv=13.8 Kva=75.0 %R=0.670
~ wdg=2 bus=node_413293914.1.2.3.4 conn=wye Kv=0.2200 Kva=75.0 %R=0.670
New Transformer.326373840_326721641 phases=3 windings=2 Xhl=3.770
~ wdg=1 bus=node_440751633.1.2.3 conn=delta Kv=13.8 Kva=75.0 %R=0.670
~ wdg=2 bus=node_412130580.1.2.3.4 conn=wye Kv=0.2200 Kva=75.0 %R=0.670
New Transformer.326372869_326876242 phases=3 windings=2 Xhl=3.770
~ wdg=1 bus=node_435225646.1.2.3 conn=delta Kv=13.8 Kva=75.0 %R=0.670
~ wdg=2 bus=node_412100655.1.2.3.4 conn=wye Kv=0.2200 Kva=75.0 %R=0.670
New Transformer.326372870_326845500 phases=3 windings=2 Xhl=3.770
~ wdg=1 bus=node_443158209.1.2.3 conn=delta Kv=13.8 Kva=75.0 %R=0.670
~ wdg=2 bus=node_412102629.1.2.3.4 conn=wye Kv=0.2200 Kva=75.0 %R=0.670
New Transformer.326373020_326721795 phases=3 windings=2 Xhl=3.770
~ wdg=1 bus=node_425867617.1.2.3 conn=delta Kv=13.8 Kva=75.0 %R=0.670
~ wdg=2 bus=node_412164570.1.2.3.4 conn=wye Kv=0.2200 Kva=75.0 %R=0.670
New Transformer.326373023_326831634 phases=3 windings=2 Xhl=3.770
~ wdg=1 bus=node_443159719.1.2.3 conn=delta Kv=13.8 Kva=75.0 %R=0.670
~ wdg=2 bus=node_412131684.1.2.3.4 conn=wye Kv=0.2200 Kva=75.0 %R=0.670
New Transformer.326373025_326876281 phases=3 windings=2 Xhl=3.770
~ wdg=1 bus=node_426039673.1.2.3 conn=delta Kv=13.8 Kva=75.0 %R=0.670
~ wdg=2 bus=node_412102203.1.2.3.4 conn=wye Kv=0.2200 Kva=75.0 %R=0.670
New Transformer.326373397_326845477 phases=3 windings=2 Xhl=3.770
~ wdg=1 bus=node_435224927.1.2.3 conn=delta Kv=13.8 Kva=75.0 %R=0.670
~ wdg=2 bus=node_412180955.1.2.3.4 conn=wye Kv=0.2200 Kva=75.0 %R=0.670
New Transformer.326373755_326719179 phases=3 windings=2 Xhl=3.770
~ wdg=1 bus=node_443158254.1.2.3 conn=delta Kv=13.8 Kva=75.0 %R=0.670
~ wdg=2 bus=node_412131723.1.2.3.4 conn=wye Kv=0.2200 Kva=75.0 %R=0.670
New Transformer.326373471_326872666 phases=3 windings=2 Xhl=3.770
~ wdg=1 bus=node_442591551.1.2.3 conn=delta Kv=13.8 Kva=75.0 %R=0.670
~ wdg=2 bus=node_412154884.1.2.3.4 conn=wye Kv=0.2200 Kva=75.0 %R=0.670
New Transformer.326373832_326721593 phases=3 windings=2 Xhl=3.770
~ wdg=1 bus=node_425708371.1.2.3 conn=delta Kv=13.8 Kva=75.0 %R=0.670
~ wdg=2 bus=node_412131396.1.2.3.4 conn=wye Kv=0.2200 Kva=75.0 %R=0.670
New Transformer.326372612_326872631 phases=3 windings=2 Xhl=3.770
~ wdg=1 bus=node_442730865.1.2.3 conn=delta Kv=13.8 Kva=75.0 %R=0.670
~ wdg=2 bus=node_412166358.1.2.3.4 conn=wye Kv=0.2200 Kva=75.0 %R=0.670
New Transformer.326372685_326876337 phases=3 windings=2 Xhl=3.770
~ wdg=1 bus=node_440752152.1.2.3 conn=delta Kv=13.8 Kva=75.0 %R=0.670
~ wdg=2 bus=node_412131333.1.2.3.4 conn=wye Kv=0.2200 Kva=75.0 %R=0.670
New Transformer.326373930_326874791 phases=3 windings=2 Xhl=3.770
~ wdg=1 bus=node_442879049.1.2.3 conn=delta Kv=13.8 Kva=75.0 %R=0.670
~ wdg=2 bus=node_413294091.1.2.3.4 conn=wye Kv=0.2200 Kva=75.0 %R=0.670
New Transformer.326373442_326721809 phases=3 windings=2 Xhl=3.770
~ wdg=1 bus=node_442879720.1.2.3 conn=delta Kv=13.8 Kva=75.0 %R=0.670
~ wdg=2 bus=node_412154350.1.2.3.4 conn=wye Kv=0.2200 Kva=75.0 %R=0.670
New Transformer.326373451_326874821 phases=3 windings=2 Xhl=3.770
~ wdg=1 bus=node_434762298.1.2.3 conn=delta Kv=13.8 Kva=75.0 %R=0.670
~ wdg=2 bus=node_413295336.1.2.3.4 conn=wye Kv=0.2200 Kva=75.0 %R=0.670
New Transformer.326373815_326845382 phases=3 windings=2 Xhl=3.770
~ wdg=1 bus=node_442729097.1.2.3 conn=delta Kv=13.8 Kva=75.0 %R=0.670
~ wdg=2 bus=node_412176881.1.2.3.4 conn=wye Kv=0.2200 Kva=75.0 %R=0.670
New Transformer.326372834_326844549 phases=3 windings=2 Xhl=3.770
~ wdg=1 bus=node_442435407.1.2.3 conn=delta Kv=13.8 Kva=75.0 %R=0.670
~ wdg=2 bus=node_412154977.1.2.3.4 conn=wye Kv=0.2200 Kva=75.0 %R=0.670
New Transformer.326373053_326899007 phases=3 windings=2 Xhl=3.770
~ wdg=1 bus=node_443293698.1.2.3 conn=delta Kv=13.8 Kva=75.0 %R=0.670
~ wdg=2 bus=node_412100691.1.2.3.4 conn=wye Kv=0.2200 Kva=75.0 %R=0.670
New Transformer.326373673_2364783129 phases=3 windings=2 Xhl=3.770
~ wdg=1 bus=node_439689306.1.2.3 conn=delta Kv=13.8 Kva=75.0 %R=0.670
~ wdg=2 bus=node_412151644.1.2.3.4 conn=wye Kv=0.2200 Kva=75.0 %R=0.670
New Transformer.326373678_326876329 phases=3 windings=2 Xhl=3.770
~ wdg=1 bus=node_442730395.1.2.3 conn=delta Kv=13.8 Kva=75.0 %R=0.670
~ wdg=2 bus=node_412151749.1.2.3.4 conn=wye Kv=0.2200 Kva=75.0 %R=0.670
New Transformer.326373679_326843050 phases=3 windings=2 Xhl=3.770
~ wdg=1 bus=node_439689511.1.2.3 conn=delta Kv=13.8 Kva=75.0 %R=0.670
~ wdg=2 bus=node_412669610.1.2.3.4 conn=wye Kv=0.2200 Kva=75.0 %R=0.670
New Transformer.326373684_326833173 phases=3 windings=2 Xhl=3.770
~ wdg=1 bus=node_443026288.1.2.3 conn=delta Kv=13.8 Kva=75.0 %R=0.670
~ wdg=2 bus=node_412165680.1.2.3.4 conn=wye Kv=0.2200 Kva=75.0 %R=0.670
New Transformer.326373181_326718948 phases=3 windings=2 Xhl=3.770
~ wdg=1 bus=node_443029000.1.2.3 conn=delta Kv=13.8 Kva=75.0 %R=0.670
~ wdg=2 bus=node_412102134.1.2.3.4 conn=wye Kv=0.2200 Kva=75.0 %R=0.670
New Transformer.326373545_326833155 phases=3 windings=2 Xhl=3.770
~ wdg=1 bus=node_435831499.1.2.3 conn=delta Kv=13.8 Kva=75.0 %R=0.670
~ wdg=2 bus=node_412178603.1.2.3.4 conn=wye Kv=0.2200 Kva=75.0 %R=0.670
New Transformer.326373557_326721843 phases=3 windings=2 Xhl=3.770
~ wdg=1 bus=node_442594418.1.2.3 conn=delta Kv=13.8 Kva=75.0 %R=0.670
~ wdg=2 bus=node_412131399.1.2.3.4 conn=wye Kv=0.2200 Kva=75.0 %R=0.670
New Transformer.326373360_326832998 phases=3 windings=2 Xhl=3.770
~ wdg=1 bus=node_426041733.1.2.3 conn=delta Kv=13.8 Kva=75.0 %R=0.670
~ wdg=2 bus=node_412130952.1.2.3.4 conn=wye Kv=0.2200 Kva=75.0 %R=0.670
New Transformer.325723318_326843938 phases=3 windings=2 Xhl=3.770
~ wdg=1 bus=node_443293319.1.2.3 conn=delta Kv=13.8 Kva=75.0 %R=0.670
~ wdg=2 bus=node_413295039.1.2.3.4 conn=wye Kv=0.2200 Kva=75.0 %R=0.670
New Transformer.325723546_326831640 phases=3 windings=2 Xhl=3.770
~ wdg=1 bus=node_426647067.1.2.3 conn=delta Kv=13.8 Kva=75.0 %R=0.670
~ wdg=2 bus=node_412131420.1.2.3.4 conn=wye Kv=0.2200 Kva=75.0 %R=0.670
New Transformer.325723549_326719180 phases=3 windings=2 Xhl=3.770
~ wdg=1 bus=node_440752028.1.2.3 conn=delta Kv=13.8 Kva=75.0 %R=0.670
~ wdg=2 bus=node_412103040.1.2.3.4 conn=wye Kv=0.2200 Kva=75.0 %R=0.670
New Transformer.325723458_326843773 phases=3 windings=2 Xhl=3.770
~ wdg=1 bus=node_434438940.1.2.3 conn=delta Kv=13.8 Kva=75.0 %R=0.670
~ wdg=2 bus=node_413228128.1.2.3.4 conn=wye Kv=0.2200 Kva=75.0 %R=0.670
New Transformer.326373620_1856880190 phases=3 windings=2 Xhl=3.770
~ wdg=1 bus=node_426212284.1.2.3 conn=delta Kv=13.8 Kva=75.0 %R=0.670
~ wdg=2 bus=node_412131285.1.2.3.4 conn=wye Kv=0.2200 Kva=75.0 %R=0.670
New Transformer.325723689_326719110 phases=3 windings=2 Xhl=3.770
~ wdg=1 bus=node_442881379.1.2.3 conn=delta Kv=13.8 Kva=75.0 %R=0.670
~ wdg=2 bus=node_412178750.1.2.3.4 conn=wye Kv=0.2200 Kva=75.0 %R=0.670
New Transformer.325723428_326719147 phases=3 windings=2 Xhl=3.770
~ wdg=1 bus=node_435366146.1.2.3 conn=delta Kv=13.8 Kva=75.0 %R=0.670
~ wdg=2 bus=node_412178081.1.2.3.4 conn=wye Kv=0.2200 Kva=75.0 %R=0.670
New Transformer.325723471_326899077 phases=3 windings=2 Xhl=3.770
~ wdg=1 bus=node_426350233.1.2.3 conn=delta Kv=13.8 Kva=75.0 %R=0.670
~ wdg=2 bus=node_408835838.1.2.3.4 conn=wye Kv=0.2200 Kva=75.0 %R=0.670
New Transformer.325723930_326898934 phases=3 windings=2 Xhl=3.770
~ wdg=1 bus=node_426804210.1.2.3 conn=delta Kv=13.8 Kva=75.0 %R=0.670
~ wdg=2 bus=node_412152871.1.2.3.4 conn=wye Kv=0.2200 Kva=75.0 %R=0.670
New Transformer.325723742_1679430634 phases=3 windings=2 Xhl=3.770
~ wdg=1 bus=node_443291243.1.2.3 conn=delta Kv=13.8 Kva=75.0 %R=0.670
~ wdg=2 bus=node_412200072.1.2.3.4 conn=wye Kv=0.2200 Kva=75.0 %R=0.670
New Transformer.325723743_326719148 phases=3 windings=2 Xhl=3.770
~ wdg=1 bus=node_435366091.1.2.3 conn=delta Kv=13.8 Kva=75.0 %R=0.670
~ wdg=2 bus=node_412179740.1.2.3.4 conn=wye Kv=0.2200 Kva=75.0 %R=0.670
New Transformer.326372925_326876214 phases=3 windings=2 Xhl=3.770
~ wdg=1 bus=node_443028086.1.2.3 conn=delta Kv=13.8 Kva=75.0 %R=0.670
~ wdg=2 bus=node_412153513.1.2.3.4 conn=wye Kv=0.2200 Kva=75.0 %R=0.670
New Transformer.326373642_326719312 phases=3 windings=2 Xhl=3.770
~ wdg=1 bus=node_426804310.1.2.3 conn=delta Kv=13.8 Kva=75.0 %R=0.670
~ wdg=2 bus=node_412101810.1.2.3.4 conn=wye Kv=0.2200 Kva=75.0 %R=0.670
New Transformer.326373652_326872512 phases=3 windings=2 Xhl=3.770
~ wdg=1 bus=node_426349933.1.2.3 conn=delta Kv=13.8 Kva=75.0 %R=0.670
~ wdg=2 bus=node_457283613.1.2.3.4 conn=wye Kv=0.2200 Kva=75.0 %R=0.670
New Transformer.325724004_326876235 phases=3 windings=2 Xhl=3.770
~ wdg=1 bus=node_443294548.1.2.3 conn=delta Kv=13.8 Kva=75.0 %R=0.670
~ wdg=2 bus=node_412131435.1.2.3.4 conn=wye Kv=0.2200 Kva=75.0 %R=0.670
New Transformer.325723885_326900998 phases=3 windings=2 Xhl=3.770
~ wdg=1 bus=node_443291389.1.2.3 conn=delta Kv=13.8 Kva=75.0 %R=0.670
~ wdg=2 bus=node_412201692.1.2.3.4 conn=wye Kv=0.2200 Kva=75.0 %R=0.670
New Transformer.325724138_326845421 phases=3 windings=2 Xhl=3.770
~ wdg=1 bus=node_426803326.1.2.3 conn=delta Kv=13.8 Kva=75.0 %R=0.670
~ wdg=2 bus=node_412131873.1.2.3.4 conn=wye Kv=0.2200 Kva=75.0 %R=0.670
New Transformer.325724200_326845674 phases=3 windings=2 Xhl=3.770
~ wdg=1 bus=node_443025908.1.2.3 conn=delta Kv=13.8 Kva=75.0 %R=0.670
~ wdg=2 bus=node_412165065.1.2.3.4 conn=wye Kv=0.2200 Kva=75.0 %R=0.670
New Transformer.325723914_326899029 phases=3 windings=2 Xhl=3.770
~ wdg=1 bus=node_426040548.1.2.3 conn=delta Kv=13.8 Kva=75.0 %R=0.670
~ wdg=2 bus=node_412100205.1.2.3.4 conn=wye Kv=0.2200 Kva=75.0 %R=0.670
New Transformer.325724124_326831310 phases=3 windings=2 Xhl=3.770
~ wdg=1 bus=node_434758959.1.2.3 conn=delta Kv=13.8 Kva=75.0 %R=0.670
~ wdg=2 bus=node_413260160.1.2.3.4 conn=wye Kv=0.2200 Kva=75.0 %R=0.670
New Transformer.325724361_326844581 phases=3 windings=2 Xhl=3.770
~ wdg=1 bus=node_1392693335.1.2.3 conn=delta Kv=13.8 Kva=75.0 %R=0.670
~ wdg=2 bus=node_1392693508.1.2.3.4 conn=wye Kv=0.2200 Kva=75.0 %R=0.670
New Transformer.325724101_326901225 phases=3 windings=2 Xhl=3.770
~ wdg=1 bus=node_434279687.1.2.3 conn=delta Kv=13.8 Kva=75.0 %R=0.670
~ wdg=2 bus=node_413260034.1.2.3.4 conn=wye Kv=0.2200 Kva=75.0 %R=0.670
New Transformer.325723960_326720549 phases=3 windings=2 Xhl=3.770
~ wdg=1 bus=node_440750193.1.2.3 conn=delta Kv=13.8 Kva=75.0 %R=0.670
~ wdg=2 bus=node_412659781.1.2.3.4 conn=wye Kv=0.2200 Kva=75.0 %R=0.670
New Transformer.325724031_1802372291 phases=3 windings=2 Xhl=3.770
~ wdg=1 bus=node_2126131394.1.2.3 conn=delta Kv=13.8 Kva=75.0 %R=0.670
~ wdg=2 bus=node_458137569.1.2.3.4 conn=wye Kv=0.2200 Kva=75.0 %R=0.670
New Transformer.325724430_326831597 phases=3 windings=2 Xhl=3.770
~ wdg=1 bus=node_443026932.1.2.3 conn=delta Kv=13.8 Kva=75.0 %R=0.670
~ wdg=2 bus=node_412153756.1.2.3.4 conn=wye Kv=0.2200 Kva=75.0 %R=0.670
New Transformer.325724434_326901227 phases=3 windings=2 Xhl=3.770
~ wdg=1 bus=node_443028675.1.2.3 conn=delta Kv=13.8 Kva=75.0 %R=0.670
~ wdg=2 bus=node_412130721.1.2.3.4 conn=wye Kv=0.2200 Kva=75.0 %R=0.670
New Transformer.325723799_326831580 phases=3 windings=2 Xhl=3.770
~ wdg=1 bus=node_443161799.1.2.3 conn=delta Kv=13.8 Kva=75.0 %R=0.670
~ wdg=2 bus=node_412180049.1.2.3.4 conn=wye Kv=0.2200 Kva=75.0 %R=0.670
New Transformer.325724355_326901009 phases=3 windings=2 Xhl=3.770
~ wdg=1 bus=node_443159209.1.2.3 conn=delta Kv=13.8 Kva=75.0 %R=0.670
~ wdg=2 bus=node_413161005.1.2.3.4 conn=wye Kv=0.2200 Kva=75.0 %R=0.670
New Transformer.325724422_326833171 phases=3 windings=2 Xhl=3.770
~ wdg=1 bus=node_439688723.1.2.3 conn=delta Kv=13.8 Kva=75.0 %R=0.670
~ wdg=2 bus=node_412164534.1.2.3.4 conn=wye Kv=0.2200 Kva=75.0 %R=0.670
New Transformer.325724049_1708664317 phases=3 windings=2 Xhl=3.770
~ wdg=1 bus=node_434280961.1.2.3 conn=delta Kv=13.8 Kva=75.0 %R=0.670
~ wdg=2 bus=node_412165704.1.2.3.4 conn=wye Kv=0.2200 Kva=75.0 %R=0.670
New Transformer.325724440_326833184 phases=3 windings=2 Xhl=3.770
~ wdg=1 bus=node_442881264.1.2.3 conn=delta Kv=13.8 Kva=75.0 %R=0.670
~ wdg=2 bus=node_412178981.1.2.3.4 conn=wye Kv=0.2200 Kva=75.0 %R=0.670
New Transformer.325724567_326833176 phases=3 windings=2 Xhl=3.770
~ wdg=1 bus=node_443027431.1.2.3 conn=delta Kv=13.8 Kva=75.0 %R=0.670
~ wdg=2 bus=node_412165485.1.2.3.4 conn=wye Kv=0.2200 Kva=75.0 %R=0.670
New Transformer.325724569_326845285 phases=3 windings=2 Xhl=3.770
~ wdg=1 bus=node_439498032.1.2.3 conn=delta Kv=13.8 Kva=75.0 %R=0.670
~ wdg=2 bus=node_412100100.1.2.3.4 conn=wye Kv=0.2200 Kva=75.0 %R=0.670
New Transformer.325724572_326899122 phases=3 windings=2 Xhl=3.770
~ wdg=1 bus=node_439496389.1.2.3 conn=delta Kv=13.8 Kva=75.0 %R=0.670
~ wdg=2 bus=node_412180616.1.2.3.4 conn=wye Kv=0.2200 Kva=75.0 %R=0.670
New Transformer.325724608_2493538685 phases=3 windings=2 Xhl=3.770
~ wdg=1 bus=node_440752818.1.2.3 conn=delta Kv=13.8 Kva=75.0 %R=0.670
~ wdg=2 bus=node_412101963.1.2.3.4 conn=wye Kv=0.2200 Kva=75.0 %R=0.670
New Transformer.325724446_326845533 phases=3 windings=2 Xhl=3.770
~ wdg=1 bus=node_426039093.1.2.3 conn=delta Kv=13.8 Kva=75.0 %R=0.670
~ wdg=2 bus=node_412100376.1.2.3.4 conn=wye Kv=0.2200 Kva=75.0 %R=0.670
New Transformer.325724553_326831838 phases=3 windings=2 Xhl=3.770
~ wdg=1 bus=node_440751878.1.2.3 conn=delta Kv=13.8 Kva=75.0 %R=0.670
~ wdg=2 bus=node_412131579.1.2.3.4 conn=wye Kv=0.2200 Kva=75.0 %R=0.670
New Transformer.325724535_2764988186 phases=3 windings=2 Xhl=3.770
~ wdg=1 bus=node_425708088.1.2.3 conn=delta Kv=13.8 Kva=75.0 %R=0.670
~ wdg=2 bus=node_412151581.1.2.3.4 conn=wye Kv=0.2200 Kva=75.0 %R=0.670
New Transformer.325724234_1816310599 phases=3 windings=2 Xhl=3.770
~ wdg=1 bus=node_439498343.1.2.3 conn=delta Kv=13.8 Kva=75.0 %R=0.670
~ wdg=2 bus=node_413262512.1.2.3.4 conn=wye Kv=0.2200 Kva=75.0 %R=0.670
New Transformer.325724767_326721796 phases=3 windings=2 Xhl=3.770
~ wdg=1 bus=node_442879565.1.2.3 conn=delta Kv=13.8 Kva=75.0 %R=0.670
~ wdg=2 bus=node_412165374.1.2.3.4 conn=wye Kv=0.2200 Kva=75.0 %R=0.670
New Transformer.325724779_326876379 phases=3 windings=2 Xhl=3.770
~ wdg=1 bus=node_434594263.1.2.3 conn=delta Kv=13.8 Kva=75.0 %R=0.670
~ wdg=2 bus=node_412130976.1.2.3.4 conn=wye Kv=0.2200 Kva=75.0 %R=0.670
New Transformer.325724922_326872675 phases=3 windings=2 Xhl=3.770
~ wdg=1 bus=node_425710865.1.2.3 conn=delta Kv=13.8 Kva=75.0 %R=0.670
~ wdg=2 bus=node_412130730.1.2.3.4 conn=wye Kv=0.2200 Kva=75.0 %R=0.670
New Transformer.325724923_326876373 phases=3 windings=2 Xhl=3.770
~ wdg=1 bus=node_426498167.1.2.3 conn=delta Kv=13.8 Kva=75.0 %R=0.670
~ wdg=2 bus=node_412102974.1.2.3.4 conn=wye Kv=0.2200 Kva=75.0 %R=0.670
New Transformer.325724631_326719389 phases=3 windings=2 Xhl=3.770
~ wdg=1 bus=node_439689751.1.2.3 conn=delta Kv=13.8 Kva=75.0 %R=0.670
~ wdg=2 bus=node_412178237.1.2.3.4 conn=wye Kv=0.2200 Kva=75.0 %R=0.670
New Transformer.325724471_326833131 phases=3 windings=2 Xhl=3.770
~ wdg=1 bus=node_439496229.1.2.3 conn=delta Kv=13.8 Kva=75.0 %R=0.670
~ wdg=2 bus=node_412198566.1.2.3.4 conn=wye Kv=0.2200 Kva=75.0 %R=0.670
New Transformer.325724976_326872710 phases=3 windings=2 Xhl=3.770
~ wdg=1 bus=node_443415673.1.2.3 conn=delta Kv=13.8 Kva=75.0 %R=0.670
~ wdg=2 bus=node_412101768.1.2.3.4 conn=wye Kv=0.2200 Kva=75.0 %R=0.670
New Transformer.325724986_2742260436 phases=3 windings=2 Xhl=3.770
~ wdg=1 bus=node_435366614.1.2.3 conn=delta Kv=13.8 Kva=75.0 %R=0.670
~ wdg=2 bus=node_413260376.1.2.3.4 conn=wye Kv=0.2200 Kva=75.0 %R=0.670
New Transformer.325725076_326719195 phases=3 windings=2 Xhl=3.770
~ wdg=1 bus=node_443416247.1.2.3 conn=delta Kv=13.8 Kva=75.0 %R=0.670
~ wdg=2 bus=node_408835700.1.2.3.4 conn=wye Kv=0.2200 Kva=75.0 %R=0.670
New Transformer.325724999_326872632 phases=3 windings=2 Xhl=3.770
~ wdg=1 bus=node_434436904.1.2.3 conn=delta Kv=13.8 Kva=75.0 %R=0.670
~ wdg=2 bus=node_412177610.1.2.3.4 conn=wye Kv=0.2200 Kva=75.0 %R=0.670
New Transformer.325724724_326829258 phases=3 windings=2 Xhl=3.770
~ wdg=1 bus=node_443029050.1.2.3 conn=delta Kv=13.8 Kva=75.0 %R=0.670
~ wdg=2 bus=node_412103763.1.2.3.4 conn=wye Kv=0.2200 Kva=75.0 %R=0.670
New Transformer.325724732_326721706 phases=3 windings=2 Xhl=3.770
~ wdg=1 bus=node_426211164.1.2.3 conn=delta Kv=13.8 Kva=75.0 %R=0.670
~ wdg=2 bus=node_412180907.1.2.3.4 conn=wye Kv=0.2200 Kva=75.0 %R=0.670
New Transformer.325725180_326876136 phases=3 windings=2 Xhl=3.770
~ wdg=1 bus=node_442880704.1.2.3 conn=delta Kv=13.8 Kva=75.0 %R=0.670
~ wdg=2 bus=node_412166070.1.2.3.4 conn=wye Kv=0.2200 Kva=75.0 %R=0.670
New Transformer.325725277_326845214 phases=3 windings=2 Xhl=3.770
~ wdg=1 bus=node_442728687.1.2.3 conn=delta Kv=13.8 Kva=75.0 %R=0.670
~ wdg=2 bus=node_413344002.1.2.3.4 conn=wye Kv=0.2200 Kva=75.0 %R=0.670
New Transformer.325725284_326831693 phases=3 windings=2 Xhl=3.770
~ wdg=1 bus=node_431329243.1.2.3 conn=delta Kv=13.8 Kva=75.0 %R=0.670
~ wdg=2 bus=node_412099656.1.2.3.4 conn=wye Kv=0.2200 Kva=75.0 %R=0.670
New Transformer.325724875_326845065 phases=3 windings=2 Xhl=3.770
~ wdg=1 bus=node_434281061.1.2.3 conn=delta Kv=13.8 Kva=75.0 %R=0.670
~ wdg=2 bus=node_413260268.1.2.3.4 conn=wye Kv=0.2200 Kva=75.0 %R=0.670
New Transformer.325725399_326831309 phases=3 windings=2 Xhl=3.770
~ wdg=1 bus=node_432016313.1.2.3 conn=delta Kv=13.8 Kva=75.0 %R=0.670
~ wdg=2 bus=node_413259413.1.2.3.4 conn=wye Kv=0.2200 Kva=75.0 %R=0.670
New Transformer.325725087_326719175 phases=3 windings=2 Xhl=3.770
~ wdg=1 bus=node_432018535.1.2.3 conn=delta Kv=13.8 Kva=75.0 %R=0.670
~ wdg=2 bus=node_412132923.1.2.3.4 conn=wye Kv=0.2200 Kva=75.0 %R=0.670
New Transformer.325725205_2494199964 phases=3 windings=2 Xhl=3.770
~ wdg=1 bus=node_443291273.1.2.3 conn=delta Kv=13.8 Kva=75.0 %R=0.670
~ wdg=2 bus=node_412202055.1.2.3.4 conn=wye Kv=0.2200 Kva=75.0 %R=0.670
New Transformer.325725371_326833290 phases=3 windings=2 Xhl=3.770
~ wdg=1 bus=node_439689801.1.2.3 conn=delta Kv=13.8 Kva=75.0 %R=0.670
~ wdg=2 bus=node_412131783.1.2.3.4 conn=wye Kv=0.2200 Kva=75.0 %R=0.670
New Transformer.325725554_326718870 phases=3 windings=2 Xhl=3.770
~ wdg=1 bus=node_426499136.1.2.3 conn=delta Kv=13.8 Kva=75.0 %R=0.670
~ wdg=2 bus=node_412102335.1.2.3.4 conn=wye Kv=0.2200 Kva=75.0 %R=0.670
New Transformer.325725459_326833008 phases=3 windings=2 Xhl=3.770
~ wdg=1 bus=node_426646827.1.2.3 conn=delta Kv=13.8 Kva=75.0 %R=0.670
~ wdg=2 bus=node_412130538.1.2.3.4 conn=wye Kv=0.2200 Kva=75.0 %R=0.670
New Transformer.325725637_326872637 phases=3 windings=2 Xhl=3.770
~ wdg=1 bus=node_426804185.1.2.3 conn=delta Kv=13.8 Kva=75.0 %R=0.670
~ wdg=2 bus=node_412151506.1.2.3.4 conn=wye Kv=0.2200 Kva=75.0 %R=0.670
New Transformer.325725626_326719316 phases=3 windings=2 Xhl=3.770
~ wdg=1 bus=node_439498318.1.2.3 conn=delta Kv=13.8 Kva=75.0 %R=0.670
~ wdg=2 bus=node_412132263.1.2.3.4 conn=wye Kv=0.2200 Kva=75.0 %R=0.670
New Transformer.989011297_989011298 phases=3 windings=2 Xhl=3.770
~ wdg=1 bus=node_425866532.1.2.3 conn=delta Kv=13.8 Kva=75.0 %R=0.670
~ wdg=2 bus=node_1250898153.1.2.3.4 conn=wye Kv=0.2200 Kva=75.0 %R=0.670
New Transformer.2164747117_2164747121 phases=3 windings=2 Xhl=3.770
~ wdg=1 bus=node_442881273.1.2.3 conn=delta Kv=13.8 Kva=75.0 %R=0.670
~ wdg=2 bus=node_459807174.1.2.3.4 conn=wye Kv=0.2200 Kva=75.0 %R=0.670
New Transformer.998174082_998174081 phases=3 windings=2 Xhl=3.770
~ wdg=1 bus=node_1295316901.1.2.3 conn=delta Kv=13.8 Kva=75.0 %R=0.670
~ wdg=2 bus=node_1295315568.1.2.3.4 conn=wye Kv=0.2200 Kva=75.0 %R=0.670
New Transformer.998174190_998174189 phases=3 windings=2 Xhl=3.770
~ wdg=1 bus=node_1295317086.1.2.3 conn=delta Kv=13.8 Kva=75.0 %R=0.670
~ wdg=2 bus=node_1295316001.1.2.3.4 conn=wye Kv=0.2200 Kva=75.0 %R=0.670
...